@<TRIPOS>MOLECULE
GWS
   34    35     1     0     0
SMALL
bcc


@<TRIPOS>ATOM
      1 N            8.0270    -0.3210    21.1040 ns      1001 GWS      -0.467100
      2 C            9.3180     0.1790    21.4520 c       1001 GWS       0.667100
      3 O            9.8710     0.9150    20.7010 o       1001 GWS      -0.585100
      4 C1           9.9280    -0.2750    22.7730 c3      1001 GWS      -0.150400
      5 N1           7.5340     0.3440    17.5810 nb      1001 GWS      -0.643000
      6 C2          11.4520    -0.2750    22.7120 c3      1001 GWS      -0.062700
      7 C3          11.9730    -0.5340    24.1180 c3      1001 GWS      -0.075900
      8 C4          13.4880    -0.5140    24.0620 c3      1001 GWS      -0.075900
      9 C5          13.9760    -1.6820    23.2210 c3      1001 GWS      -0.078400
     10 C6          13.4570    -1.5250    21.8030 c3      1001 GWS      -0.075900
     11 C7          11.9470    -1.3430    21.7400 c3      1001 GWS      -0.075900
     12 C8           7.4310     0.1160    19.8830 ca      1001 GWS      -0.046700
     13 C9           6.1970     0.7510    19.9620 ca      1001 GWS      -0.156000
     14 C10          5.6480     1.1680    18.7500 ca      1001 GWS      -0.219300
     15 C11          6.3540     0.9440    17.5790 ca      1001 GWS       0.363200
     16 C12          8.0960    -0.0720    18.6860 ca      1001 GWS       0.374200
     17 H            7.5580    -0.9540    21.6940 hn      1001 GWS       0.316500
     18 H1           9.5880    -1.2660    22.9910 hc      1001 GWS       0.070200
     19 H2           9.6220     0.4080    23.5370 hc      1001 GWS       0.070200
     20 H3          11.8120     0.6680    22.3570 hc      1001 GWS       0.071700
     21 H4          11.6340    -1.4890    24.4620 hc      1001 GWS       0.040450
     22 H5          11.6140     0.2140    24.7930 hc      1001 GWS       0.040450
     23 H6          13.8170     0.4050    23.6230 hc      1001 GWS       0.043700
     24 H7          13.8840    -0.5960    25.0530 hc      1001 GWS       0.043700
     25 H8          15.0460    -1.6940    23.2120 hc      1001 GWS       0.040700
     26 H9          13.6170    -2.6000    23.6370 hc      1001 GWS       0.040700
     27 H10         13.9230    -0.6680    21.3620 hc      1001 GWS       0.043700
     28 H11         13.6940    -2.4240    21.2740 hc      1001 GWS       0.043700
     29 H12         11.4780    -2.2730    21.9830 hc      1001 GWS       0.040450
     30 H13         11.6960    -1.0260    20.7490 hc      1001 GWS       0.040450
     31 H14          5.7170     0.9040    20.8620 ha      1001 GWS       0.133000
     32 H15          4.7290     1.6370    18.7250 ha      1001 GWS       0.142000
     33 H16          5.9490     1.2530    16.6810 h4      1001 GWS       0.023100
     34 H17          9.0190    -0.5320    18.6650 h4      1001 GWS       0.063100
@<TRIPOS>BOND
     1     1     2 1   
     2     1    12 1   
     3     1    17 1   
     4     2     3 2   
     5     2     4 1   
     6     4     6 1   
     7     4    18 1   
     8     4    19 1   
     9     5    15 ar  
    10     5    16 ar  
    11     6     7 1   
    12     6    11 1   
    13     6    20 1   
    14     7     8 1   
    15     7    21 1   
    16     7    22 1   
    17     8     9 1   
    18     8    23 1   
    19     8    24 1   
    20     9    10 1   
    21     9    25 1   
    22     9    26 1   
    23    10    11 1   
    24    10    27 1   
    25    10    28 1   
    26    11    29 1   
    27    11    30 1   
    28    12    13 ar  
    29    12    16 ar  
    30    13    14 ar  
    31    13    31 1   
    32    14    15 ar  
    33    14    32 1   
    34    15    33 1   
    35    16    34 1   
@<TRIPOS>SUBSTRUCTURE
     1 GWS         1 TEMP              0 ****  ****    0 ROOT
